%chk=G:\tree\shmd\trunk\contrib\dimer\1.chk
# hf/3-21g geom=connectivity

Title Card Required

0 1
 C                 -0.63559325    0.31779661    0.00000000
 C                  0.75956675    0.31779661    0.00000000
 C                  1.45710475    1.52554761    0.00000000
 C                  0.75945075    2.73405661   -0.00119900
 C                 -0.63537425    2.73397861   -0.00167800
 C                 -1.33297525    1.52577261   -0.00068200
 H                 -1.18535225   -0.63452039    0.00045000
 H                  1.30907475   -0.63471639    0.00131500
 H                  2.55678475    1.52562761    0.00063400
 H                  1.30965075    3.68619961   -0.00125800
 H                 -1.18549625    3.68625961   -0.00263100
 Cl                -3.09297520    1.52606551   -0.00097010

 1 2 1.5 6 1.5 7 1.0
 2 3 1.5 8 1.0
 3 4 1.5 9 1.0
 4 5 1.5 10 1.0
 5 6 1.5 11 1.0
 6 12 1.0
 7
 8
 9
 10
 11
 12

