%chk=G:\tree\shmd\trunk\contrib\dimer\2.chk
# hf/3-21g geom=connectivity

Title Card Required

0 1
 C                  0.24440673    0.31765016    0.00014405
 C                  1.63956673    0.31765016    0.00014405
 C                  2.33710473    1.52540116    0.00014405
 C                  1.63945073    2.73391016   -0.00105495
 C                  0.24462573    2.73383216   -0.00153395
 C                 -0.45297527    1.52562616   -0.00053795
 H                 -0.30535227   -0.63466684    0.00059405
 H                  2.18907473   -0.63486284    0.00145905
 H                  3.43678473    1.52548116    0.00077805
 H                  2.18965073    3.68605316   -0.00111395
 H                 -0.30549627    3.68611316   -0.00248695
 Cl                -3.97297518    1.52621196   -0.00111415

 1 2 1.5 6 1.5 7 1.0
 2 3 1.5 8 1.0
 3 4 1.5 9 1.0
 4 5 1.5 10 1.0
 5 6 1.5 11 1.0
 6 12 1.0
 7
 8
 9
 10
 11
 12

