%chk=scan.chk
%mem=14GB
%nprocshared=8
# MP2/genecp counterpoise=2 scf=(tight,maxcycle=10000) nosymm

[0] [0]

0 1
c          3.2788623011          6.0019035932         -0.0461831174
c          2.8442087110          4.8781266765          0.0530722896
c          2.1086955783          3.5664409727          0.0091195432
c          0.9409300470          3.4283735274         -0.8410117936
c          2.5600563658          2.5297023136          0.7522931190
c          0.2703826902          2.2892273516         -0.8445117502
h          0.5841551226          4.4972642934         -1.1639233367
c          1.8771789469          1.3189300630          0.7562020495
h          3.3295863575          2.7204205077          1.2592030550
c          0.6966342540          1.2127599067          0.0536561020
h         -0.6286928087          2.1932761790         -1.4299158169
h          2.2554307835          0.6028155772          1.2674893845
n          0.0159204619          0.0289256689         -0.0744277669
c          0.6594723676         -1.2165978043         -0.0072018273
c          0.1962482566         -2.3326048876          0.7973419174
c          1.8775061308         -1.4178764129         -0.6730020812
c          0.9275264102         -3.5407202692          0.7313183231
h         -0.7801131011         -2.1698753310          1.2559427743
c          2.6330855748         -2.5689937729         -0.7235628817
h          2.0511801052         -0.5491621371         -1.2807020916
c          2.0995205850         -3.6455094608          0.0515568770
c          2.7876102631         -4.8727073450          0.0226032948
h          3.6065846094         -2.6145478857         -1.1612324928
c          3.4300139899         -5.9407021536          0.0608016225
c         -1.4064874302          0.1005996156         -0.0953817201
c         -2.1456871267          0.8262561057          0.8440792399
c         -2.1313214891         -0.7259180297         -0.9617149329
c         -3.5019491094          0.8107798562          0.9195782559
h         -1.5080055818          1.5793747373          1.4371169659
c         -3.4851573473         -0.7369134275         -0.9185113676
h         -1.4484758788         -1.3640928954         -1.6878557163
c         -4.1886880802          0.0272196292          0.0750079032
h         -4.0181330604          1.5002496492          1.5956128339
h         -3.8234526552         -1.3761360562         -1.5469343910
c         -5.5805052366          0.0092818122          0.0455817072
c         -6.7851463354         -0.0705231009          0.0627439346
h          0.5178495074         -4.5332110978          1.1482626008
h          3.8280426535          6.7490957394         -0.2336375244
h          4.0412435818         -6.8118557368         -0.0311984199
h         -7.7873907465          0.0020808904          0.1302508427

@B2a.gbs/N




