%chk=a.chk
%mem=2GB
%nproc=2
# force cam-b3lyp/6-31G* scf=(xqc, maxcycle=10000)  nosymm pop=full 

[0] [0] iop(9/40=20)

1   1   
C          0.6780939670        -0.0167560471        -0.0011887278
H          1.0086260421         0.9673558026         0.0589275494
H          1.3729527389        -0.8045940221        -0.1210043540
N         -0.5873899507        -0.0169590183         0.0230776509
H         -1.0864700838         0.9798783209        -0.2204017253
H         -1.3613999326        -0.7074849401        -0.0248003291

